Info: SIMULATION PARAMETERS:
Info: TIMESTEP               1
Info: NUMBER OF STEPS        300000
Info: STEPS PER CYCLE        16
Info: FIRST LDB TIMESTEP     80
Info: LAST LDB TIMESTEP     -1
Info: HOM BACKGROUND SCALING 1
Info: MIN ATOMS PER PATCH    40
Info: VELOCITY FILE          minvac_0.vel
Info: CENTER OF MASS MOVING INITIALLY? NO
Info: DIELECTRIC             1
Info: EXCLUDE                SCALED ONE-FOUR
Info: 1-4 ELECTROSTATICS SCALED BY 1
Info: MODIFIED 1-4 VDW PARAMETERS WILL BE USED
Info: DCD FILENAME           output/vacuum.dcd
Info: DCD FREQUENCY          5000
Info: DCD FIRST STEP         5000
Info: DCD FILE WILL CONTAIN UNIT CELL DATA
Info: NO EXTENDED SYSTEM TRAJECTORY OUTPUT
Info: NO VELOCITY DCD OUTPUT
Info: NO FORCE DCD OUTPUT
Info: OUTPUT FILENAME        output/vacuum
Info: RESTART FILENAME       output/vacuum
Info: RESTART FREQUENCY      5000
Info: BINARY RESTART FILES WILL BE USED
Info: CUTOFF                 20
Info: PAIRLIST DISTANCE      22
Info: PAIRLIST SHRINK RATE   0.01
Info: PAIRLIST GROW RATE     0.01
Info: PAIRLIST TRIGGER       0.3
Info: PAIRLISTS PER CYCLE    2
Info: PAIRLISTS ENABLED
Info: MARGIN                 1
Info: HYDROGEN GROUP CUTOFF  2.8
Info: PATCH DIMENSION        25.8
Info: ENERGY OUTPUT STEPS    5000
Info: CROSSTERM ENERGY INCLUDED IN DIHEDRAL
Info: TIMING OUTPUT STEPS    5000
Info: COLLECTIVE VARIABLES CALCULATION REQUESTED
Info: COLLECTIVE VARIABLES CONFIGURATION   vacuum.in
Info: LANGEVIN DYNAMICS ACTIVE
Info: LANGEVIN TEMPERATURE   300
Info: LANGEVIN USING BBK INTEGRATOR
Info: LANGEVIN DAMPING COEFFICIENT IS 10 INVERSE PS
Info: LANGEVIN DYNAMICS APPLIED TO HYDROGENS
Info: USING VERLET I (r-RESPA) MTS SCHEME.
Info: C1 SPLITTING OF LONG RANGE ELECTROSTATICS
Info: PLACING ATOMS IN PATCHES BY HYDROGEN GROUPS
Info: RANDOM NUMBER SEED     1761464315
Info: USE HYDROGEN BONDS?    NO
Info: COORDINATE PDB         minvac_0.coor
Info: STRUCTURE FILE         vacuum.psf
Info: PARAMETER file: CHARMM format!
Info: PARAMETERS             par_all22_prot.inp
Info: USING ARITHMETIC MEAN TO COMBINE L-J SIGMA PARAMETERS
Info: SUMMARY OF PARAMETERS:
Info: 139 BONDS
Info: 345 ANGLES
Info: 452 DIHEDRAL
Info: 43 IMPROPER
Info: 0 CROSSTERM
Info: 90 VDW
Info: 0 VDW_PAIRS
Info: 0 NBTHOLE_PAIRS
Info: STRUCTURE SUMMARY:
Info: 22 ATOMS
Info: 21 BONDS
Info: 36 ANGLES
Info: 41 DIHEDRALS
Info: 4 IMPROPERS
Info: 0 CROSSTERMS
Info: 0 EXCLUSIONS
Info: 66 DEGREES OF FREEDOM
Info: 10 HYDROGEN GROUPS
Info: 4 ATOMS IN LARGEST HYDROGEN GROUP
Info: 10 MIGRATION GROUPS
Info: 4 ATOMS IN LARGEST MIGRATION GROUP
Info: TOTAL MASS = 144.174 amu
Info: TOTAL CHARGE = 2.23517e-08 e
Info: ADDED 98 IMPLICIT EXCLUSIONS
Info: NONBONDED TABLE R-SQUARED SPACING: 0.0625
Info: NONBONDED TABLE SIZE: 833 POINTS
Info: ORIGINAL ATOMS MINMAX IS -2.775 -0.295 -4.554  2.412 4.42 1.309
Info: ADJUSTED ATOMS MINMAX IS -3.01563 -0.32375 -4.94125  2.30062 4.19375 1.87125
Info: REMOVING COM VELOCITY 0 0 0
ETITLE: TS BOND ANGLE DIHED IMPRP ELECT VDW BOUNDARY MISC KINETIC TOTAL TEMP POTENTIAL TOTAL3 TEMPAVG
ENERGY: 0 0.6388 2.0333 2.5224 0.0203 -15.7436 -0.8467 0.0000 0.0000 0.0000 -11.3755 0.0000 -11.3755 -11.3740 0.0000
ENERGY: 5000 6.6301 8.8751 4.6222 1.0391 -18.1682 -0.0543 0.0000 1.2658 16.0400 20.2498 244.5970 4.2098 20.6038 298.0982
ENERGY: 15000 12.1209 5.4884 3.7994 1.8921 -17.2563 0.2874 0.0000 2.1636 18.2159 26.7114 277.7768 8.4955 27.1836 296.9148
ENERGY: 20000 8.6304 8.0364 4.1819 0.4871 -18.0575 0.5123 0.0000 3.7536 19.1054 26.6495 291.3413 7.5441 26.2286 304.8781
ENERGY: 30000 5.8584 11.4062 4.0645 0.2329 -19.7684 -0.3775 0.0000 1.5409 24.8495 27.8065 378.9349 2.9570 27.6617 294.7929
ENERGY: 35000 6.2766 6.8693 5.2468 0.0753 -18.7845 -1.3456 0.0000 6.2067 19.0155 23.5600 289.9705 4.5445 23.6017 301.3610
